[General]
network = test.DistributedNetwork
sim-time-limit = 500s

*.numClients = 3
*.numServers = 6

*.client[0].clientId = "C1"
*.client[1].clientId = "C2"
*.client[2].clientId = "C3"


*.server[0].serverId = "S1"
*.server[1].serverId = "S2"
*.server[2].serverId = "S3"
*.server[3].serverId = "S4"
*.server[4].serverId = "S5"
*.server[5].serverId = "S6"

*.server[0].isMalicious = false
*.server[1].isMalicious = true
*.server[2].isMalicious = false
*.server[3].isMalicious = true
*.server[4].isMalicious = false
*.server[5].isMalicious = false
